<?xml version="1.0" encoding="UTF-8"?>

<!-- generated on 2024-11-21 22:35:46 by Eclipse SUMO netedit Version 1.21.0
-->

<routes xmlns:xsi="http://www.w3.org/2001/XMLSchema-instance" xsi:noNamespaceSchemaLocation="http://sumo.dlr.de/xsd/routes_file.xsd">
    <!-- Routes -->
    <route id="offender_route" edges="4588220#0 -4588220#1 -1155757392 1155757393#1 4588220#0 -4588220#1 -1155757392 -168935756#1 -1110748916#1 1110748916#1 168935756#0 -168935756#1 -1110748916#1 1110748916#1 168935756#0 -168935756#1 -1110748916#1 -753316505#1 753316505#1 -753316505#1 1228446781#1 -1228446781#2 1228446781#1 168935757#1 168935757#2 -168935757#2 -168935757#1 168935757#1 168935757#2 4588224#0 4588224#1 1132165078#1 1132165078#2 1132164893#1 -1132164893#2 -1132164893#0 -1132165078#1 -1132165078#0 -4588224#0 4588224#0 4588224#1 1132165078#1 1132165078#2 1132164893#1 -1132164893#2 -1132164893#0 -1132165078#1 -1132165078#0 -4588224#0 4588224#0 4588224#1 1132165078#1 1132165078#2 1132164893#1 -1132164893#2 -1132164893#0 -1132165078#1 -1132165078#0 -4588224#0 4588224#0 4588224#1 1132165078#1 1132165078#2 1132164893#1 -1132164893#2 -1132164893#0 -1132165078#1 -1132165078#0 -4588224#0 4588224#0 4588224#1 1132165078#1 1132165078#2 1132164893#1 -1132164893#2 -1132164893#0 -1132165078#1 -1132165078#0 -4588224#0 4588224#0 4588224#1 1132165078#1 1132165078#2 1132164893#1 110785555#1 327462543#0 -81113584#1 199847241#0 199847241#1 435164424#0 67099797#1 24242838#1 24242838#3 24242838#4 24242838#5 -24242838#5 -24242838#4 -24242838#3 -24242838#1 -67099797#1 -435164424#0 199847244#1 199847244#2 199847244#3 81113584#0 -327462543#1 -1132164863 110785555#1 327462543#0" color="255,0,58"/>
    <route id="other1_route" edges="681299268#1 1110749336#1 4588219#1 4588219#2 4588219#3 1132163645#1 1132163645#4 1132164217#5 199847247#0 199847247#1 199847247#2 67099789#1 375311155#0 16374191#1 375311156#0 375311156#2 1123184404#0 1123184404#1 1123184404#2 375311154#0" color="156,0,255"/>
    <route id="other2_route" edges="43348945#1 1105574292#0 1105574292#1 1105574292#2 191556835#0 191556835#1 -47755711#4 -47755711#3 -47755711#2 -47755711#1 -47755711#0 -1187575246 1073015934 47707171#1 47707171#2 1136657261 -24997595#1 -24997595#0 389101373#1 389101373#2 389101373#3 1249342904#1 1249342904#2 23755961#1 4611711#0" color="156,0,255"/>
    <route id="other3_route" edges="-66071387#4 -66071387#3 -66071387#2 -66071387#0 -1152723807#1 -1152876521#0 -1152876518#0 -4611773#0 -67627347#1 -67627347#0 -67627350#1 -67627350#0 -1132166349#0 -65040958#2 -16374393#0 -1199889721#0 -505526660#0 -356359316#3 -356359316#2 -356359316#1" color="156,0,255"/>
    <route id="other4_route" edges="-1228558179#0 -4396528#3 -4396528#2 1152723799#1 4611774#1 4611774#2 4611774#3 4611774#4 1152723801 -1152876521#0 -1152876518#0 -67099797#1 458953718#1 65040946#2 65040946#3 65040946#4 65040946#6 22972469#1 22972469#2 884209962#1 884209962#3 1149365722#1 22972470#0 22972470#1 22972470#4 22972470#5 1116358457#1 24997595#1 1073015936 -1132164217#1 -1132163645#1 196850607#0 196850607#1 196850607#2 -1190781965 196850609#0 196850609#1 196850609#2 882389497#1 194069450#0" color="156,0,255"/>
    <route id="police_route" edges="1105574289#0 1105574289#1 375311158#1 375311158#2 110786129#1 375311157#0 -1132167289#1 -22972469#1 1151333062#1" color="14,83,242"/>
    <route id="victim_route" edges="-840229277#1 -840229277#0 -1136657259#0 -4588222#1" color="121,231,42"/>
    <!-- Vehicles, persons and containers (sorted by depart) -->
    <vehicle id="other2" depart="0.00" color="174,0,255" route="other4_route"/>
    <vehicle id="other3" depart="0.00" color="174,0,255" route="other1_route"/>
    <vehicle id="v_0" depart="0.00" color="255,0,29" route="offender_route"/>
    <vehicle id="v_1" depart="0.00" color="0,255,34" route="victim_route"/>
    <vehicle id="v_2" depart="0.00" color="0,12,255" route="police_route"/>
    <vehicle id="v_3" depart="0.00" color="174,0,255" route="other1_route"/>
    <vehicle id="v_4" depart="0.00" color="174,0,255" route="other3_route"/>
</routes>
