<?xml version="1.0" encoding="UTF-8"?>

<!-- generated on 2024-11-22 04:45:23 by Eclipse SUMO netedit Version 1.21.0
-->

<routes xmlns:xsi="http://www.w3.org/2001/XMLSchema-instance" xsi:noNamespaceSchemaLocation="http://sumo.dlr.de/xsd/routes_file.xsd">
    <!-- Routes -->
    <route id="offender_route" edges="24913267#1 24913267#3 326116286#0 -4588220#1 -1155757392 -168935756#1 -1110748916#1 -753316505#1 1228446781#1 168935757#1 168935757#2 4588224#0 4588224#1 1132165078#1 1132165078#2 1132164893#1 110785555#1 327462543#0 -81113584#1 199847241#0 199847241#1 435164424#0 67099797#1 24242838#1 24242838#3 24242838#4 24242838#5" color="255,0,34"/>
    <route id="other1_route" edges="1115641285#1 47935842 681299268#1 1110749336#1 4588219#1 4588219#2 4588219#3 1132163645#1 1132163645#4 1136657261 -24997595#1 -24997595#0 389101373#1 389101373#2 389101373#3 1249342904#1 1249342904#2 23755961#1 4611711#0 4611711#1" color="235,0,255"/>
    <route id="other2_route" edges="1152723799#1 4611774#1 4611774#2 4611774#3 4611774#4 1152723801 1152723807#1 1152723806#1 66071387#2 66071387#3 66071387#4 -327756257#4 -327756257#1 -327756257#0 23755718#1 23755718#2 23755718#3 508410319#0 508410319#1 508410319#2 -375459781#1 -375459781#0 -25945760#0 375311154#1 375311154#3 375311154#4 541763977#1 168514765#1 1040940511" color="235,0,255"/>
    <route id="other3_route" edges="-32938173#0 -1147413234#3 -1147413234#1 -23755731#3 -23755731#1 24242838#8 -327756257#1 -327756257#0 -23755720#3 -23755720#2 -23755720#1 22972469#1 22972469#2 884209962#1 884209962#3 1149365722#1 1073015940#1 375459783#1 -1132164282#0 1136657263#0 1136657263#1 1136657263#2 1187575246 47755711#0 47755711#1 47755711#2 47755711#3 47755711#4 -1228446781#2 753316505#1 1110748916#1 168935756#0 1155757393#1 4588220#0 -326116286#1 -24913267#3 -24913267#2" color="235,0,255"/>
    <route id="other4_route" edges="-4611708#2 -4611708#1 -4611708#0 35557161#3 35557161#4 1105574289#0 1105574289#1 1151333058#1 1151333057#0 1151333057#1 1151333057#2 1073015940#1 375459783#1 665241888#1 1136657266#1 1136657266#2 4588224#0 4588224#1 1132165078#1 1132165078#2 1132164893#1 -16374393#0 -1199889721#0 -505526660#0 -356359316#3 -356359316#2 -356359316#1" color="235,0,255"/>
    <route id="polilce_route" edges="131577612#3 1079386660 320462164#0 320462164#2 320462164#6 4401967#1 335462916 85255870#0 1263480787#1 23755739#1 23755739#2 681299268#1 1110749960#1 753316506#1 1228446781#1 168935757#1 168935757#2 4588224#0 4588224#1 1132165078#1 1132165078#2 1132164893#1 110785555#1 327462543#0 -81113584#1 199847241#0 199847241#1 435164424#0 67099797#1 24242838#1 24242838#3 24242838#4 24242838#5" color="0,77,255"/>
    <route id="victim_route" edges="-840229277#1 -840229277#0 -1136657259#0 -4588222#1 -753316506#1" color="36,255,0"/>
    <!-- Vehicles, persons and containers (sorted by depart) -->
    <vehicle id="offender" depart="0.00" color="255,0,53" route="offender_route"/>
    <vehicle id="other1" depart="0.00" color="190,0,255" route="other1_route"/>
    <vehicle id="other2" depart="0.00" color="190,0,255" route="other2_route"/>
    <vehicle id="other3" depart="0.00" color="190,0,255" route="other4_route"/>
    <vehicle id="other4" depart="0.00" color="190,0,255" route="other3_route"/>
    <vehicle id="police" depart="0.00" color="0,111,255" route="polilce_route">
        <stop lane="131577612#3_0" startPos="7.44" endPos="17.44" duration="150.00"/>
    </vehicle>
    <vehicle id="victim" depart="0.00" color="green" route="victim_route"/>
</routes>
