<?xml version="1.0" encoding="UTF-8"?>

<!-- generated on 2024-11-21 20:18:25.716022 by osmWebWizard.py v1_20_0+0000-96efa4d36d6
<configuration>
    <net-file value="/media/llj/SanDisk/sumo-src-1.20.0/sumo-1.20.0/2024-11-21-20-18-01/osm.net.xml.gz"/>
    <output-trip-file value="/media/llj/SanDisk/sumo-src-1.20.0/sumo-1.20.0/2024-11-21-20-18-01/osm.passenger.trips.xml"/>
    <route-file value="/media/llj/SanDisk/sumo-src-1.20.0/sumo-1.20.0/2024-11-21-20-18-01/osm.passenger.rou.xml"/>
    <prefix value="veh"/>
    <trip-attributes value="departLane=&quot;best&quot;"/>
    <fringe-start-attributes value="departSpeed=&quot;max&quot;"/>
    <vehicle-class value="passenger"/>
    <lanes value="True"/>
    <fringe-factor value="5"/>
    <allow-fringe.min-length value="1000.0"/>
    <via-edge-types value="highway.motorway,highway.motorway_link,highway.trunk_link,highway.primary_link,highway.secondary_link,highway.tertiary_link"/>
    <min-distance value="300.0"/>
    <min-distance.fringe value="10.0"/>
    <remove-loops value="True"/>
    <validate value="True"/>
    <insertion-density value="12.0"/>
</configuration>
-->

<!-- generated on 2024-11-21 20:18:25 by Eclipse SUMO duarouter Version 1.21.0
<duarouterConfiguration xmlns:xsi="http://www.w3.org/2001/XMLSchema-instance" xsi:noNamespaceSchemaLocation="http://sumo.dlr.de/xsd/duarouterConfiguration.xsd">

    <input>
        <net-file value="/media/llj/SanDisk/sumo-src-1.20.0/sumo-1.20.0/2024-11-21-20-18-01/osm.net.xml.gz"/>
        <route-files value="/media/llj/SanDisk/sumo-src-1.20.0/sumo-1.20.0/2024-11-21-20-18-01/osm.passenger.trips.xml"/>
    </input>

    <output>
        <output-file value="/media/llj/SanDisk/sumo-src-1.20.0/sumo-1.20.0/2024-11-21-20-18-01/osm.passenger.trips.xml.tmp"/>
        <alternatives-output value="NUL"/>
        <write-trips value="true"/>
    </output>

    <processing>
        <remove-loops value="true"/>
    </processing>

    <time>
        <begin value="0.0"/>
        <end value="3600.0"/>
    </time>

    <report>
        <no-warnings value="true"/>
        <ignore-errors value="true"/>
        <no-step-log value="true"/>
    </report>

</duarouterConfiguration>
-->

<routes xmlns:xsi="http://www.w3.org/2001/XMLSchema-instance" xsi:noNamespaceSchemaLocation="http://sumo.dlr.de/xsd/routes_file.xsd">
    <vType id="veh_passenger" vClass="passenger"/>
    <trip id="veh0" type="veh_passenger" depart="0.00" departLane="best" from="24214089#3" to="1105574291#2"/>
    <trip id="veh1" type="veh_passenger" depart="3.77" departLane="best" from="-66071379#0" to="-4597336#1"/>
    <trip id="veh3" type="veh_passenger" depart="11.30" departLane="best" from="4840859#2" to="1152881508#2"/>
    <trip id="veh4" type="veh_passenger" depart="15.07" departLane="best" from="1127602336" to="-1124986520"/>
    <trip id="veh5" type="veh_passenger" depart="18.84" departLane="best" from="-4474915#0" to="1263480787#1"/>
    <trip id="veh6" type="veh_passenger" depart="22.61" departLane="best" from="24240245#1" to="159555818#1"/>
    <trip id="veh7" type="veh_passenger" depart="26.38" departLane="best" from="-453379904" to="197160273#1"/>
    <trip id="veh8" type="veh_passenger" depart="30.14" departLane="best" from="4402014#1" to="-1057138146"/>
    <trip id="veh9" type="veh_passenger" depart="33.91" departLane="best" from="4396503#2" to="328064930#0"/>
    <trip id="veh10" type="veh_passenger" depart="37.68" departLane="best" departSpeed="max" from="1053026513#0" to="-24242838#4"/>
    <trip id="veh11" type="veh_passenger" depart="41.45" departLane="best" departSpeed="max" from="707100246" to="1079386660"/>
    <trip id="veh12" type="veh_passenger" depart="45.22" departLane="best" from="-11845130" to="-120675240#3"/>
    <trip id="veh13" type="veh_passenger" depart="48.98" departLane="best" from="4611722#0" to="22972468#5"/>
    <trip id="veh14" type="veh_passenger" depart="52.75" departLane="best" from="4401925" to="35557161#1"/>
    <trip id="veh15" type="veh_passenger" depart="56.52" departLane="best" departSpeed="max" from="154041912" to="78298214#2"/>
    <trip id="veh16" type="veh_passenger" depart="60.29" departLane="best" from="-1110751835#3" to="160971194#0"/>
    <trip id="veh17" type="veh_passenger" depart="64.06" departLane="best" from="4597326#1" to="23755718#3"/>
    <trip id="veh18" type="veh_passenger" depart="67.82" departLane="best" from="-1147767897#1" to="171423001#1"/>
    <trip id="veh19" type="veh_passenger" depart="71.59" departLane="best" departSpeed="max" from="327462544#0" to="-1136657266#1"/>
    <trip id="veh20" type="veh_passenger" depart="75.36" departLane="best" from="-4597322#4" to="66071366#2"/>
    <trip id="veh21" type="veh_passenger" depart="79.13" departLane="best" from="1152880160#0" to="-4611710#0"/>
    <trip id="veh22" type="veh_passenger" depart="82.90" departLane="best" from="-1228562464#7" to="-55495482#1"/>
    <trip id="veh23" type="veh_passenger" depart="86.66" departLane="best" departSpeed="max" from="23851919" to="-1110753055#2"/>
    <trip id="veh24" type="veh_passenger" depart="90.43" departLane="best" from="1105574291#2" to="-4579366"/>
    <trip id="veh25" type="veh_passenger" depart="94.20" departLane="best" from="-4612403#1" to="66071387#4"/>
    <trip id="veh26" type="veh_passenger" depart="97.97" departLane="best" from="24214232#7" to="23017853"/>
    <trip id="veh27" type="veh_passenger" depart="101.74" departLane="best" departSpeed="max" from="305640730#1" to="35557143#3"/>
    <trip id="veh28" type="veh_passenger" depart="105.50" departLane="best" from="24913267#3" to="-1121496496"/>
    <trip id="veh29" type="veh_passenger" depart="109.27" departLane="best" from="85255870#0" to="24242838#5"/>
    <trip id="veh30" type="veh_passenger" depart="113.04" departLane="best" from="159081776#2" to="327756248#2"/>
    <trip id="veh31" type="veh_passenger" depart="116.81" departLane="best" from="4611714#1" to="404598741#0"/>
    <trip id="veh32" type="veh_passenger" depart="120.58" departLane="best" from="-4597324#5" to="-1125869405#0"/>
    <trip id="veh33" type="veh_passenger" depart="124.34" departLane="best" from="-43376693#5" to="67627350#0"/>
    <trip id="veh34" type="veh_passenger" depart="128.11" departLane="best" departSpeed="max" from="466891838#0" to="-851251671#0"/>
    <trip id="veh35" type="veh_passenger" depart="131.88" departLane="best" from="531952567" to="1152723801"/>
    <trip id="veh36" type="veh_passenger" depart="135.65" departLane="best" from="-4611886#4" to="4611785#2"/>
    <trip id="veh37" type="veh_passenger" depart="139.42" departLane="best" from="-15973619#5" to="-474362271"/>
    <trip id="veh38" type="veh_passenger" depart="143.18" departLane="best" from="168934839#2" to="48859715#4"/>
    <trip id="veh39" type="veh_passenger" depart="146.95" departLane="best" from="1125773127#0" to="-4597325#2"/>
    <trip id="veh41" type="veh_passenger" depart="154.49" departLane="best" departSpeed="max" from="-1171295121" to="-1147413234#3"/>
    <trip id="veh42" type="veh_passenger" depart="158.26" departLane="best" from="-131577612#3" to="24214089#6"/>
    <trip id="veh43" type="veh_passenger" depart="162.02" departLane="best" from="42102542#1" to="1147413289#0"/>
    <trip id="veh44" type="veh_passenger" depart="165.79" departLane="best" from="-1147767977#8" to="1123184404#0"/>
    <trip id="veh45" type="veh_passenger" depart="169.56" departLane="best" from="906374993#1" to="154041920"/>
    <trip id="veh46" type="veh_passenger" depart="173.33" departLane="best" from="763211372#3" to="4611785#2"/>
    <trip id="veh47" type="veh_passenger" depart="177.10" departLane="best" from="-1079386660" to="335487067#0"/>
    <trip id="veh48" type="veh_passenger" depart="180.86" departLane="best" from="309644163#1" to="156132847#1"/>
    <trip id="veh49" type="veh_passenger" depart="184.63" departLane="best" from="-4612403#1" to="24242882#1"/>
    <trip id="veh50" type="veh_passenger" depart="188.40" departLane="best" from="-147066248#1" to="1147755009#1"/>
    <trip id="veh51" type="veh_passenger" depart="192.17" departLane="best" from="-1147767968#2" to="70163729#0"/>
    <trip id="veh52" type="veh_passenger" depart="195.94" departLane="best" from="461526153#0" to="475533030#0"/>
    <trip id="veh53" type="veh_passenger" depart="199.70" departLane="best" from="1199404285" to="32938436#0"/>
    <trip id="veh54" type="veh_passenger" depart="203.47" departLane="best" from="530085625#0" to="4612399#1"/>
    <trip id="veh55" type="veh_passenger" depart="207.24" departLane="best" from="206170874" to="-24214232#5"/>
    <trip id="veh56" type="veh_passenger" depart="211.01" departLane="best" from="37294341#0" to="159081773"/>
    <trip id="veh57" type="veh_passenger" depart="214.78" departLane="best" from="375312063#0" to="155186522#0"/>
    <trip id="veh58" type="veh_passenger" depart="218.54" departLane="best" from="-1110751835#0" to="632065766#0"/>
    <trip id="veh59" type="veh_passenger" depart="222.31" departLane="best" from="466891841#0" to="4597335#4"/>
    <trip id="veh60" type="veh_passenger" depart="226.08" departLane="best" from="-67627350#0" to="1147628333"/>
    <trip id="veh61" type="veh_passenger" depart="229.85" departLane="best" departSpeed="max" from="466891838#0" to="68647306#5"/>
    <trip id="veh63" type="veh_passenger" depart="237.38" departLane="best" from="375311154#1" to="-172421119#1"/>
    <trip id="veh64" type="veh_passenger" depart="241.15" departLane="best" from="1152723812#1" to="160968641"/>
    <trip id="veh65" type="veh_passenger" depart="244.92" departLane="best" from="-4611886#4" to="4612404#1"/>
    <trip id="veh66" type="veh_passenger" depart="248.69" departLane="best" from="1132164217#5" to="-4588215#6"/>
    <trip id="veh67" type="veh_passenger" depart="252.45" departLane="best" departSpeed="max" from="154041912" to="35557161#1"/>
    <trip id="veh68" type="veh_passenger" depart="256.22" departLane="best" from="-375459781#1" to="831860725#0"/>
    <trip id="veh70" type="veh_passenger" depart="263.76" departLane="best" from="-1147413272#1" to="1320422403#1"/>
    <trip id="veh72" type="veh_passenger" depart="271.29" departLane="best" from="-1009114665#2" to="196850609#1"/>
    <trip id="veh73" type="veh_passenger" depart="275.06" departLane="best" from="1151333059#2" to="24214232#1"/>
    <trip id="veh74" type="veh_passenger" depart="278.83" departLane="best" from="-4597324#5" to="505475202#1"/>
    <trip id="veh75" type="veh_passenger" depart="282.60" departLane="best" departSpeed="max" from="-4597351#1" to="320420912#1"/>
    <trip id="veh77" type="veh_passenger" depart="290.13" departLane="best" from="1152723792#1" to="42821881#1"/>
    <trip id="veh78" type="veh_passenger" depart="293.90" departLane="best" from="4401925" to="37289106"/>
    <trip id="veh79" type="veh_passenger" depart="297.67" departLane="best" from="-120675240#3" to="1147648945#1"/>
    <trip id="veh80" type="veh_passenger" depart="301.44" departLane="best" from="1132164893#1" to="1152881508#0"/>
    <trip id="veh81" type="veh_passenger" depart="305.21" departLane="best" from="-335462887#1" to="320420916#0"/>
    <trip id="veh83" type="veh_passenger" depart="312.74" departLane="best" from="1125773128#0" to="1079495669#1"/>
    <trip id="veh84" type="veh_passenger" depart="316.51" departLane="best" from="-1127602336" to="-55495482#2"/>
    <trip id="veh85" type="veh_passenger" depart="320.28" departLane="best" departSpeed="max" from="157390073#0" to="1147413270#1"/>
    <trip id="veh87" type="veh_passenger" depart="327.81" departLane="best" from="753730627#0" to="415424122#2"/>
    <trip id="veh88" type="veh_passenger" depart="331.58" departLane="best" from="4611722#1" to="-320462163"/>
    <trip id="veh89" type="veh_passenger" depart="335.35" departLane="best" from="1125773127#1" to="-1147628373#0"/>
    <trip id="veh90" type="veh_passenger" depart="339.12" departLane="best" from="1110752486" to="-851251670#1"/>
    <trip id="veh91" type="veh_passenger" depart="342.89" departLane="best" from="-4611886#5" to="42821881#1"/>
    <trip id="veh92" type="veh_passenger" depart="346.65" departLane="best" from="-1147767977#2" to="1147413299"/>
    <trip id="veh93" type="veh_passenger" depart="350.42" departLane="best" departSpeed="max" from="707100246" to="900014246#1"/>
    <trip id="veh95" type="veh_passenger" depart="357.96" departLane="best" from="-24214232#6" to="-67627353#0"/>
    <trip id="veh96" type="veh_passenger" depart="361.73" departLane="best" from="753730627#0" to="172421119#1"/>
    <trip id="veh97" type="veh_passenger" depart="365.49" departLane="best" from="155186522#0" to="37289167#7"/>
    <trip id="veh98" type="veh_passenger" depart="369.26" departLane="best" departSpeed="max" from="-1147648922" to="82488124#1"/>
    <trip id="veh100" type="veh_passenger" depart="376.80" departLane="best" from="1152880160#0" to="35557143#3"/>
    <trip id="veh101" type="veh_passenger" depart="380.57" departLane="best" from="181472197#2" to="320462164#2"/>
    <trip id="veh102" type="veh_passenger" depart="384.33" departLane="best" departSpeed="max" from="-4597335#4" to="159081777#3"/>
    <trip id="veh103" type="veh_passenger" depart="388.10" departLane="best" from="47755711#4" to="4611785#2"/>
    <trip id="veh104" type="veh_passenger" depart="391.87" departLane="best" from="179780067#1" to="23755720#2"/>
    <trip id="veh105" type="veh_passenger" depart="395.64" departLane="best" from="1126465703#1" to="191556835#0"/>
    <trip id="veh106" type="veh_passenger" depart="399.41" departLane="best" from="1312048954#1" to="66071373#1"/>
    <trip id="veh107" type="veh_passenger" depart="403.17" departLane="best" from="-415424121#2" to="-335462916"/>
    <trip id="veh108" type="veh_passenger" depart="406.94" departLane="best" from="-4600250" to="1125871619#4"/>
    <trip id="veh109" type="veh_passenger" depart="410.71" departLane="best" from="28108856#0" to="-69409262#6"/>
    <trip id="veh110" type="veh_passenger" depart="414.48" departLane="best" from="1110752772" to="375311154#0"/>
    <trip id="veh111" type="veh_passenger" depart="418.25" departLane="best" from="-1152723792#0" to="1152723799#1"/>
    <trip id="veh112" type="veh_passenger" depart="422.01" departLane="best" from="-95926536#2" to="108488061#1"/>
    <trip id="veh113" type="veh_passenger" depart="425.78" departLane="best" from="-1152723798#0" to="-4588217#1"/>
    <trip id="veh114" type="veh_passenger" depart="429.55" departLane="best" from="-4611886#5" to="66071366#1"/>
    <trip id="veh115" type="veh_passenger" depart="433.32" departLane="best" from="-475530951#0" to="466891841#2"/>
    <trip id="veh116" type="veh_passenger" depart="437.09" departLane="best" from="1105574291#1" to="-24509317#1"/>
    <trip id="veh117" type="veh_passenger" depart="440.85" departLane="best" from="210668637#1" to="851251671#2"/>
    <trip id="veh118" type="veh_passenger" depart="444.62" departLane="best" from="-24509317#0" to="-1057138146"/>
    <trip id="veh119" type="veh_passenger" depart="448.39" departLane="best" from="4588215#4" to="-69409262#5"/>
    <trip id="veh120" type="veh_passenger" depart="452.16" departLane="best" departSpeed="max" from="25121294#0" to="664586644#0"/>
    <trip id="veh121" type="veh_passenger" depart="455.93" departLane="best" from="-1311183233#0" to="160971194#0"/>
    <trip id="veh122" type="veh_passenger" depart="459.69" departLane="best" departSpeed="max" from="-461526153#0" to="22972469#1"/>
    <trip id="veh123" type="veh_passenger" depart="463.46" departLane="best" from="328064919#2" to="-4396528#2"/>
    <trip id="veh124" type="veh_passenger" depart="467.23" departLane="best" from="-23755739#2" to="475533030#1"/>
    <trip id="veh125" type="veh_passenger" depart="471.00" departLane="best" from="1170522572#0" to="505475202#1"/>
    <trip id="veh126" type="veh_passenger" depart="474.77" departLane="best" from="4611718#0" to="11845130"/>
    <trip id="veh127" type="veh_passenger" depart="478.53" departLane="best" from="1132164893#1" to="-542983664#2"/>
    <trip id="veh128" type="veh_passenger" depart="482.30" departLane="best" from="-1057180460#0" to="389101373#1"/>
    <trip id="veh129" type="veh_passenger" depart="486.07" departLane="best" departSpeed="max" from="23851919" to="-4612429#1"/>
    <trip id="veh130" type="veh_passenger" depart="489.84" departLane="best" from="35440679#0" to="160971191#3"/>
    <trip id="veh131" type="veh_passenger" depart="493.61" departLane="best" from="-1132169637#1" to="-1057180460#0"/>
    <trip id="veh132" type="veh_passenger" depart="497.37" departLane="best" from="-1152723812#2" to="475530951#1"/>
    <trip id="veh133" type="veh_passenger" depart="501.14" departLane="best" from="48859721#1" to="159555818#2"/>
    <trip id="veh134" type="veh_passenger" depart="504.91" departLane="best" from="4610610#1" to="-182623931#1"/>
    <trip id="veh135" type="veh_passenger" depart="508.68" departLane="best" from="-23755718#3" to="-168935757#2"/>
    <trip id="veh137" type="veh_passenger" depart="516.21" departLane="best" from="43231842#2" to="-4611785#3"/>
    <trip id="veh138" type="veh_passenger" depart="519.98" departLane="best" from="4611714#3" to="-1301027756#0"/>
    <trip id="veh139" type="veh_passenger" depart="523.75" departLane="best" from="375312063#2" to="475533029#1"/>
    <trip id="veh140" type="veh_passenger" depart="527.52" departLane="best" from="1125871619#1" to="23755731#3"/>
    <trip id="veh141" type="veh_passenger" depart="531.29" departLane="best" from="-24214232#6" to="632065766#1"/>
    <trip id="veh142" type="veh_passenger" depart="535.05" departLane="best" from="-4611869#5" to="48859715#2"/>
    <trip id="veh143" type="veh_passenger" depart="538.82" departLane="best" from="4402014#3" to="475530951#1"/>
    <trip id="veh144" type="veh_passenger" depart="542.59" departLane="best" from="-1127596842#0" to="36259516#0"/>
    <trip id="veh145" type="veh_passenger" depart="546.36" departLane="best" from="-882389497#1" to="65040946#4"/>
    <trip id="veh146" type="veh_passenger" depart="550.13" departLane="best" from="4395698" to="4611867#1"/>
    <trip id="veh147" type="veh_passenger" depart="553.89" departLane="best" from="-4402014#3" to="-47755711#2"/>
    <trip id="veh148" type="veh_passenger" depart="557.66" departLane="best" from="404598741#0" to="132600840#0"/>
    <trip id="veh149" type="veh_passenger" depart="561.43" departLane="best" from="4612410#5" to="4611774#2"/>
    <trip id="veh150" type="veh_passenger" depart="565.20" departLane="best" departSpeed="max" from="1147768020#0" to="71143837#0"/>
    <trip id="veh151" type="veh_passenger" depart="568.97" departLane="best" from="43231842#0" to="-4610610#0"/>
    <trip id="veh152" type="veh_passenger" depart="572.73" departLane="best" from="-1126465423" to="375311158#2"/>
    <trip id="veh153" type="veh_passenger" depart="576.50" departLane="best" from="851251671#0" to="4611867#3"/>
    <trip id="veh154" type="veh_passenger" depart="580.27" departLane="best" from="-4600250" to="563341815#0"/>
    <trip id="veh155" type="veh_passenger" depart="584.04" departLane="best" from="11845184#1" to="1127596842#2"/>
    <trip id="veh157" type="veh_passenger" depart="591.57" departLane="best" from="664586644#0" to="-155186522#1"/>
    <trip id="veh158" type="veh_passenger" depart="595.34" departLane="best" from="-1127597264#0" to="32938436#0"/>
    <trip id="veh159" type="veh_passenger" depart="599.11" departLane="best" from="71143837#2" to="4773029#4"/>
    <trip id="veh160" type="veh_passenger" depart="602.88" departLane="best" from="-1311664010#1" to="1147755009#1"/>
    <trip id="veh161" type="veh_passenger" depart="606.65" departLane="best" from="-335462887#0" to="4887463#1"/>
    <trip id="veh162" type="veh_passenger" depart="610.41" departLane="best" from="199847247#2" to="1312048953#2"/>
    <trip id="veh163" type="veh_passenger" depart="614.18" departLane="best" from="1116508491#1" to="16943617"/>
    <trip id="veh164" type="veh_passenger" depart="617.95" departLane="best" from="-4611784#2" to="330840125#1"/>
    <trip id="veh165" type="veh_passenger" depart="621.72" departLane="best" from="1147413246" to="63124377#2"/>
    <trip id="veh167" type="veh_passenger" depart="629.25" departLane="best" from="-35557143#2" to="320420912#2"/>
    <trip id="veh168" type="veh_passenger" depart="633.02" departLane="best" departSpeed="max" from="1102369965#0" to="-1147768007#0"/>
    <trip id="veh169" type="veh_passenger" depart="636.79" departLane="best" departSpeed="max" from="25121294#0" to="1057183597#0"/>
    <trip id="veh170" type="veh_passenger" depart="640.56" departLane="best" from="-694745015#1" to="4611714#5"/>
    <trip id="veh171" type="veh_passenger" depart="644.33" departLane="best" from="328426193#2" to="-69409262#7"/>
    <trip id="veh172" type="veh_passenger" depart="648.09" departLane="best" from="-681299268#1" to="1136657260#1"/>
    <trip id="veh173" type="veh_passenger" depart="651.86" departLane="best" from="1125773128#0" to="67627350#0"/>
    <trip id="veh174" type="veh_passenger" depart="655.63" departLane="best" from="-15973619#8" to="1147413274"/>
    <trip id="veh175" type="veh_passenger" depart="659.40" departLane="best" from="664586644#0" to="-326116285#4"/>
    <trip id="veh176" type="veh_passenger" depart="663.16" departLane="best" departSpeed="max" from="48859721#0" to="236092221#0"/>
    <trip id="veh177" type="veh_passenger" depart="666.93" departLane="best" from="66071366#1" to="15973619#6"/>
    <trip id="veh178" type="veh_passenger" depart="670.70" departLane="best" from="-1009114665#0" to="-65040946#2"/>
    <trip id="veh179" type="veh_passenger" depart="674.47" departLane="best" from="1136657263#1" to="-173296880#0"/>
    <trip id="veh180" type="veh_passenger" depart="678.24" departLane="best" from="24509318" to="1152880161"/>
    <trip id="veh181" type="veh_passenger" depart="682.00" departLane="best" from="-1147628333" to="-4588219#2"/>
    <trip id="veh182" type="veh_passenger" depart="685.77" departLane="best" from="1152723794#2" to="710761408#0"/>
    <trip id="veh183" type="veh_passenger" depart="689.54" departLane="best" from="43231842#2" to="-326116285#5"/>
    <trip id="veh185" type="veh_passenger" depart="697.08" departLane="best" from="-23755731#1" to="1073015936"/>
    <trip id="veh186" type="veh_passenger" depart="700.84" departLane="best" from="4588215#9" to="375311153#0"/>
    <trip id="veh188" type="veh_passenger" depart="708.38" departLane="best" from="-375311155#1" to="-1105574291#1"/>
    <trip id="veh189" type="veh_passenger" depart="712.15" departLane="best" from="-4611708#1" to="1164203952#1"/>
    <trip id="veh190" type="veh_passenger" depart="715.92" departLane="best" from="4611722#3" to="-1151333057#1"/>
    <trip id="veh191" type="veh_passenger" depart="719.68" departLane="best" departSpeed="max" from="1126175317#0" to="24214090#2"/>
    <trip id="veh192" type="veh_passenger" depart="723.45" departLane="best" from="35557161#3" to="328064930#0"/>
    <trip id="veh193" type="veh_passenger" depart="727.22" departLane="best" from="11845184#4" to="-4611775"/>
    <trip id="veh194" type="veh_passenger" depart="730.99" departLane="best" from="24997595#1" to="-1057138146"/>
    <trip id="veh195" type="veh_passenger" depart="734.76" departLane="best" from="36259516#1" to="37933094"/>
    <trip id="veh196" type="veh_passenger" depart="738.52" departLane="best" from="4396302#1" to="1147597466#0"/>
    <trip id="veh197" type="veh_passenger" depart="742.29" departLane="best" from="-326116285#6" to="71143837#0"/>
    <trip id="veh198" type="veh_passenger" depart="746.06" departLane="best" from="1301027756#1" to="1147413269#0"/>
    <trip id="veh199" type="veh_passenger" depart="749.83" departLane="best" from="25121294#1" to="-851251671#3"/>
    <trip id="veh200" type="veh_passenger" depart="753.60" departLane="best" from="182623931#1" to="69409262#6"/>
    <trip id="veh201" type="veh_passenger" depart="757.36" departLane="best" from="328426193#2" to="1256804153"/>
    <trip id="veh202" type="veh_passenger" depart="761.13" departLane="best" from="4597336#1" to="15973619#6"/>
    <trip id="veh203" type="veh_passenger" depart="764.90" departLane="best" from="48859717#0" to="37289167#3"/>
    <trip id="veh204" type="veh_passenger" depart="768.67" departLane="best" from="1152723806#1" to="-4612410#3"/>
    <trip id="veh205" type="veh_passenger" depart="772.44" departLane="best" from="-4611711#1" to="24242835#1"/>
    <trip id="veh206" type="veh_passenger" depart="776.20" departLane="best" from="375311154#1" to="147066248#4"/>
    <trip id="veh208" type="veh_passenger" depart="783.74" departLane="best" from="-1152723821#0" to="632065761#4"/>
    <trip id="veh209" type="veh_passenger" depart="787.51" departLane="best" from="-4612412#5" to="-900014245#2"/>
    <trip id="veh210" type="veh_passenger" depart="791.28" departLane="best" from="154041918#2" to="-216524084#0"/>
    <trip id="veh211" type="veh_passenger" depart="795.04" departLane="best" from="-4597325#5" to="328064930#0"/>
    <trip id="veh212" type="veh_passenger" depart="798.81" departLane="best" from="1125871619#4" to="159081776#1"/>
    <trip id="veh213" type="veh_passenger" depart="802.58" departLane="best" departSpeed="max" from="1126175317#0" to="4402037#0"/>
    <trip id="veh214" type="veh_passenger" depart="806.35" departLane="best" from="-43156728#1" to="49405870#1"/>
    <trip id="veh215" type="veh_passenger" depart="810.12" departLane="best" from="168934839#2" to="328064930#0"/>
    <trip id="veh216" type="veh_passenger" depart="813.88" departLane="best" departSpeed="max" from="4611775" to="375312063#0"/>
    <trip id="veh217" type="veh_passenger" depart="817.65" departLane="best" from="1110755967#1" to="-1057138146"/>
    <trip id="veh220" type="veh_passenger" depart="828.96" departLane="best" from="-1233798019" to="37289167#7"/>
    <trip id="veh221" type="veh_passenger" depart="832.72" departLane="best" from="156132845#3" to="22972468#4"/>
    <trip id="veh222" type="veh_passenger" depart="836.49" departLane="best" from="-4579366" to="-4597325#2"/>
    <trip id="veh223" type="veh_passenger" depart="840.26" departLane="best" from="-1147413269#1" to="-1115641285#1"/>
    <trip id="veh224" type="veh_passenger" depart="844.03" departLane="best" from="-9657820#0" to="-326116285#6"/>
    <trip id="veh225" type="veh_passenger" depart="847.80" departLane="best" from="1125869405#0" to="-292429056#2"/>
    <trip id="veh226" type="veh_passenger" depart="851.56" departLane="best" from="1151326816" to="-168935757#2"/>
    <trip id="veh227" type="veh_passenger" depart="855.33" departLane="best" from="233833576#0" to="1110751835#2"/>
    <trip id="veh228" type="veh_passenger" depart="859.10" departLane="best" from="1123184404#1" to="166260138#2"/>
    <trip id="veh229" type="veh_passenger" depart="862.87" departLane="best" from="1127602336" to="24509318"/>
    <trip id="veh230" type="veh_passenger" depart="866.64" departLane="best" from="197160273#2" to="1152723815"/>
    <trip id="veh231" type="veh_passenger" depart="870.40" departLane="best" departSpeed="max" from="-1147413299" to="-25041360"/>
    <trip id="veh232" type="veh_passenger" depart="874.17" departLane="best" from="-435164424#0" to="-1053026513#1"/>
    <trip id="veh234" type="veh_passenger" depart="881.71" departLane="best" from="-4611718#1" to="-1152876521#0"/>
    <trip id="veh235" type="veh_passenger" depart="885.48" departLane="best" from="-1110751835#0" to="159081773"/>
    <trip id="veh236" type="veh_passenger" depart="889.24" departLane="best" from="98399537" to="-1102369963#1"/>
    <trip id="veh237" type="veh_passenger" depart="893.01" departLane="best" from="24242838#3" to="375311154#3"/>
    <trip id="veh238" type="veh_passenger" depart="896.78" departLane="best" from="69409262#2" to="-43231842#3"/>
    <trip id="veh239" type="veh_passenger" depart="900.55" departLane="best" from="-1110751835#2" to="-24214232#4"/>
    <trip id="veh240" type="veh_passenger" depart="904.32" departLane="best" from="-15973619#6" to="320420912#1"/>
    <trip id="veh242" type="veh_passenger" depart="911.85" departLane="best" departSpeed="max" from="327462544#0" to="375312063#2"/>
    <trip id="veh243" type="veh_passenger" depart="915.62" departLane="best" from="-28402260#2" to="22972473#1"/>
    <trip id="veh244" type="veh_passenger" depart="919.39" departLane="best" from="36259509#2" to="-155186522#0"/>
    <trip id="veh245" type="veh_passenger" depart="923.16" departLane="best" from="4588219#1" to="746642315#5"/>
    <trip id="veh246" type="veh_passenger" depart="926.92" departLane="best" from="-1311183234" to="-1110750064"/>
    <trip id="veh247" type="veh_passenger" depart="930.69" departLane="best" from="69409262#7" to="326116285#4"/>
    <trip id="veh248" type="veh_passenger" depart="934.46" departLane="best" from="707100745#1" to="1126234503#0"/>
    <trip id="veh249" type="veh_passenger" depart="938.23" departLane="best" from="328064918#0" to="-1152723792#0"/>
    <trip id="veh250" type="veh_passenger" depart="942.00" departLane="best" from="320462164#2" to="24214089#6"/>
    <trip id="veh251" type="veh_passenger" depart="945.76" departLane="best" from="-1228769796#0" to="39839435#0"/>
    <trip id="veh252" type="veh_passenger" depart="949.53" departLane="best" from="4611722#3" to="210668637#0"/>
    <trip id="veh253" type="veh_passenger" depart="953.30" departLane="best" from="-159081776#0" to="840229277#1"/>
    <trip id="veh254" type="veh_passenger" depart="957.07" departLane="best" from="-389101365#3" to="110032714#4"/>
    <trip id="veh255" type="veh_passenger" depart="960.84" departLane="best" from="-1132169637#1" to="1116508491#1"/>
    <trip id="veh256" type="veh_passenger" depart="964.60" departLane="best" from="1228469479#1" to="108488061#1"/>
    <trip id="veh257" type="veh_passenger" depart="968.37" departLane="best" from="4611722#3" to="4597322#2"/>