<?xml version="1.0" encoding="UTF-8"?>

<!-- generated on 2024-11-21 04:50:41 by Eclipse SUMO netconvert Version 1.21.0
<netconvertConfiguration xmlns:xsi="http://www.w3.org/2001/XMLSchema-instance" xsi:noNamespaceSchemaLocation="http://sumo.dlr.de/xsd/netconvertConfiguration.xsd">

    <input>
        <osm-files value="APT.osm"/>
    </input>

    <output>
        <output-file value="APT.net.xml"/>
    </output>

    <projection>
        <proj.utm value="true"/>
    </projection>

</netconvertConfiguration>
-->

<net version="1.20" junctionCornerDetail="5" limitTurnSpeed="5.50" xmlns:xsi="http://www.w3.org/2001/XMLSchema-instance" xsi:noNamespaceSchemaLocation="http://sumo.dlr.de/xsd/net_file.xsd">

    <location netOffset="-452831.93,-5426649.84" convBoundary="0.00,0.00,1725.71,2094.43" origBoundary="8.354993,48.990417,8.392440,49.009788" projParameter="+proj=utm +zone=32 +ellps=WGS84 +datum=WGS84 +units=m +no_defs"/>

    <type id="highway.cycleway" priority="1" numLanes="1" speed="5.56" allow="bicycle" oneway="0" width="2.00"/>
    <type id="highway.footway" priority="1" numLanes="1" speed="2.78" allow="pedestrian" oneway="1" width="2.00"/>
    <type id="highway.path" priority="1" numLanes="1" speed="5.56" allow="pedestrian bicycle" oneway="0" width="2.00"/>
    <type id="highway.pedestrian" priority="1" numLanes="1" speed="2.78" allow="pedestrian" oneway="1" width="2.00"/>
    <type id="highway.residential" priority="3" numLanes="1" speed="13.89" disallow="tram rail_urban rail rail_electric rail_fast ship container cable_car subway aircraft wheelchair scooter drone" oneway="0"/>
    <type id="highway.service" priority="1" numLanes="1" speed="5.56" allow="pedestrian delivery bicycle" oneway="0"/>
    <type id="highway.steps" priority="1" numLanes="1" speed="1.39" allow="pedestrian" oneway="1" width="2.00"/>
    <type id="highway.tertiary" priority="10" numLanes="1" speed="22.22" disallow="tram rail_urban rail rail_electric rail_fast ship container cable_car subway aircraft wheelchair scooter drone" oneway="0"/>
    <type id="highway.tertiary_link" priority="5" numLanes="1" speed="22.22" disallow="tram rail_urban rail rail_electric rail_fast ship container cable_car subway aircraft wheelchair scooter drone" oneway="0"/>
    <type id="highway.track" priority="1" numLanes="1" speed="5.56" allow="pedestrian motorcycle moped bicycle" oneway="0"/>
    <type id="highway.trunk" priority="13" numLanes="2" speed="27.78" disallow="pedestrian bicycle tram rail_urban rail rail_electric rail_fast ship container cable_car subway aircraft wheelchair scooter drone" oneway="0"/>
    <type id="highway.trunk_link" priority="8" numLanes="1" speed="22.22" disallow="pedestrian bicycle tram rail_urban rail rail_electric rail_fast ship container cable_car subway aircraft wheelchair scooter drone" oneway="0"/>
    <type id="highway.unclassified" priority="4" numLanes="1" speed="13.89" disallow="tram rail_urban rail rail_electric rail_fast ship container cable_car subway aircraft wheelchair scooter drone" oneway="0"/>
    <type id="railway.rail" priority="20" numLanes="1" speed="44.44" allow="rail" oneway="1"/>

    <edge id=":10072381090_0" function="internal">
        <lane id=":10072381090_0_0" index="0" disallow="pedestrian bicycle tram rail_urban rail rail_electric rail_fast ship container cable_car subway aircraft wheelchair scooter drone" speed="22.22" length="8.24" width="3.40" shape="1013.87,1072.41 1012.80,1074.57 1012.49,1076.26 1012.19,1077.95 1011.14,1080.13"/>
        <lane id=":10072381090_0_1" index="1" disallow="pedestrian bicycle tram rail_urban rail rail_electric rail_fast ship container cable_car subway aircraft wheelchair scooter drone" speed="22.22" length="8.24" width="3.90" shape="1013.87,1072.41 1012.32,1074.25 1010.96,1075.26 1009.60,1076.28 1008.08,1078.14"/>
        <lane id=":10072381090_0_2" index="2" disallow="pedestrian bicycle tram rail_urban rail rail_electric rail_fast ship container cable_car subway aircraft wheelchair scooter drone" speed="22.22" length="8.24" width="3.90" shape="1010.68,1070.26 1009.11,1072.12 1007.72,1073.13 1006.35,1074.14 1004.81,1076.01"/>
    </edge>
    <edge id=":10133950517_0" function="internal">
        <lane id=":10133950517_0_0" index="0" allow="pedestrian delivery bicycle" speed="5.56" length="4.04" shape="766.30,1293.49 762.85,1291.38"/>
    </edge>
    <edge id=":10133950517_1" function="internal">
        <lane id=":10133950517_1_0" index="0" allow="pedestrian delivery bicycle" speed="3.65" length="1.44" shape="766.30,1293.49 765.69,1292.18"/>
    </edge>
    <edge id=":10133950517_4" function="internal">
        <lane id=":10133950517_4_0" index="0" allow="pedestrian delivery bicycle" speed="3.65" length="3.23" shape="765.69,1292.18 765.77,1291.29 766.53,1290.82 767.97,1290.76"/>
    </edge>
    <edge id=":10133950517_2" function="internal">
        <lane id=":10133950517_2_0" index="0" allow="pedestrian delivery bicycle" speed="5.56" length="4.04" shape="764.52,1288.65 767.97,1290.76"/>
    </edge>
    <edge id=":10133950517_3" function="internal">
        <lane id=":10133950517_3_0" index="0" allow="pedestrian delivery bicycle" speed="3.65" length="1.44" shape="764.52,1288.65 765.13,1289.96"/>
    </edge>
    <edge id=":10133950517_5" function="internal">
        <lane id=":10133950517_5_0" index="0" allow="pedestrian delivery bicycle" speed="3.65" length="3.23" shape="765.13,1289.96 765.05,1290.85 764.29,1291.32 762.85,1291.38"/>
    </edge>
    <edge id=":10133950523_0" function="internal">
        <lane id=":10133950523_0_0" index="0" allow="pedestrian delivery bicycle" speed="5.56" length="9.42" shape="774.42,1291.44 769.14,1299.24"/>
    </edge>
    <edge id=":10133950523_1" function="internal">
        <lane id=":10133950523_1_0" index="0" allow="pedestrian delivery bicycle" speed="5.56" length="9.40" shape="774.42,1291.44 772.75,1293.49 770.87,1294.53 768.77,1294.57 766.47,1293.59"/>
    </edge>
    <edge id=":10133950523_2" function="internal">
        <lane id=":10133950523_2_0" index="0" allow="pedestrian delivery bicycle" speed="3.65" length="4.68" shape="774.42,1291.44 773.08,1291.96 772.19,1291.83 771.77,1291.04 771.80,1289.59"/>
    </edge>
    <edge id=":10133950523_3" function="internal">
        <lane id=":10133950523_3_0" index="0" allow="pedestrian delivery bicycle" speed="4.79" length="4.41" shape="768.14,1290.87 769.15,1291.27 770.10,1291.19 770.98,1290.63 771.80,1289.59"/>
    </edge>
    <edge id=":10133950523_4" function="internal">
        <lane id=":10133950523_4_0" index="0" allow="pedestrian delivery bicycle" speed="5.56" length="9.74" shape="768.14,1290.87 770.01,1292.50 770.81,1294.44 770.52,1296.69 769.14,1299.24"/>
    </edge>
    <edge id=":10133950523_5" function="internal">
        <lane id=":10133950523_5_0" index="0" allow="pedestrian delivery bicycle" speed="3.65" length="4.67" shape="768.14,1290.87 768.74,1292.18 768.67,1293.07 767.91,1293.54 766.47,1293.59"/>
    </edge>
    <edge id=":10133950523_6" function="internal">
        <lane id=":10133950523_6_0" index="0" allow="pedestrian delivery bicycle" speed="4.67" length="4.35" shape="766.53,1297.39 767.22,1296.17 767.44,1295.13 767.19,1294.27 766.47,1293.59"/>
    </edge>
    <edge id=":10133950523_7" function="internal">
        <lane id=":10133950523_7_0" index="0" allow="pedestrian delivery bicycle" speed="5.56" length="9.41" shape="766.53,1297.39 771.80,1289.59"/>
    </edge>
    <edge id=":10133950523_8" function="internal">
        <lane id=":10133950523_8_0" index="0" allow="pedestrian delivery bicycle" speed="3.65" length="4.67" shape="766.53,1297.39 767.88,1296.87 768.76,1297.01 769.18,1297.80 769.14,1299.24"/>
    </edge>
    <edge id=":10133950529_0" function="internal">
        <lane id=":10133950529_0_0" index="0" allow="pedestrian delivery bicycle" speed="5.56" length="5.00" shape="761.20,1290.37 756.94,1287.76"/>
    </edge>
    <edge id=":10133950529_1" function="internal">
        <lane id=":10133950529_1_0" index="0" allow="pedestrian delivery bicycle" speed="3.65" length="1.44" shape="761.20,1290.37 760.60,1289.06"/>
    </edge>
    <edge id=":10133950529_4" function="internal">
        <lane id=":10133950529_4_0" index="0" allow="pedestrian delivery bicycle" speed="3.65" length="3.23" shape="760.60,1289.06 760.67,1288.17 761.43,1287.70 762.87,1287.64"/>
    </edge>
    <edge id=":10133950529_2" function="internal">
        <lane id=":10133950529_2_0" index="0" allow="pedestrian delivery bicycle" speed="5.56" length="5.00" shape="758.61,1285.03 762.87,1287.64"/>
    </edge>
    <edge id=":10133950529_3" function="internal">
        <lane id=":10133950529_3_0" index="0" allow="pedestrian delivery bicycle" speed="3.65" length="1.44" shape="758.61,1285.03 759.22,1286.34"/>
    </edge>
    <edge id=":10133950529_5" function="internal">
        <lane id=":10133950529_5_0" index="0" allow="pedestrian delivery bicycle" speed="3.65" length="3.23" shape="759.22,1286.34 759.14,1287.23 758.38,1287.70 756.94,1287.76"/>
    </edge>
    <edge id=":1018877622_0" function="internal">
        <lane id=":1018877622_0_0" index="0" disallow="tram rail_urban rail rail_electric rail_fast ship container cable_car subway aircraft wheelchair scooter drone" speed="6.24" length="9.05" shape="1105.38,1411.34 1103.48,1409.68 1101.57,1409.11 1099.64,1409.64 1097.71,1411.26"/>
    </edge>
    <edge id=":1018877622_1" function="internal">
        <lane id=":1018877622_1_0" index="0" disallow="tram rail_urban rail rail_electric rail_fast ship container cable_car subway aircraft wheelchair scooter drone" speed="8.33" length="15.68" shape="1105.38,1411.34 1103.68,1408.48 1102.98,1405.04 1103.27,1401.01 1104.55,1396.39"/>
    </edge>
    <edge id=":1018877622_2" function="internal">
        <lane id=":1018877622_2_0" index="0" disallow="tram rail_urban rail rail_electric rail_fast ship container cable_car subway aircraft wheelchair scooter drone" speed="3.65" length="4.67" shape="1105.38,1411.34 1105.21,1409.91 1105.55,1409.09 1106.42,1408.87 1107.81,1409.26"/>
    </edge>
    <edge id=":1018877622_3" function="internal">
        <lane id=":1018877622_3_0" index="0" disallow="tram rail_urban rail rail_electric rail_fast ship container cable_car subway aircraft wheelchair scooter drone" speed="5.80" length="9.40" shape="1109.69,1402.39 1107.19,1403.44 1106.04,1404.93 1106.25,1406.87 1107.81,1409.26"/>
    </edge>
    <edge id=":1018877622_4" function="internal">
        <lane id=":1018877622_4_0" index="0" disallow="tram rail_urban rail rail_electric rail_fast ship container cable_car subway aircraft wheelchair scooter drone" speed="8.33" length="15.12" shape="1109.69,1402.39 1106.25,1403.78 1103.13,1405.90 1100.30,1408.48 1097.71,1411.26"/>
    </edge>
    <edge id=":1018877622_5" function="internal">
        <lane id=":1018877622_5_0" index="0" disallow="tram rail_urban rail rail_electric rail_fast ship container cable_car subway aircraft wheelchair scooter drone" speed="6.07" length="11.25" shape="1109.69,1402.39 1106.34,1402.80 1104.37,1401.94 1103.77,1399.80 1104.55,1396.39"/>
    </edge>
    <edge id=":1018877622_6" function="internal">
        <lane id=":1018877622_6_0" index="0" disallow="tram rail_urban rail rail_electric rail_fast ship container cable_car subway aircraft wheelchair scooter drone" speed="8.33" length="15.82" shape="1095.32,1409.13 1097.93,1406.23 1100.54,1403.12 1102.86,1399.84 1104.55,1396.39"/>
    </edge>
    <edge id=":1018877622_7" function="internal">
        <lane id=":1018877622_7_0" index="0" disallow="tram rail_urban rail rail_electric rail_fast ship container cable_car subway aircraft wheelchair scooter drone" speed="7.78" length="14.73" shape="1095.32,1409.13 1098.47,1406.49 1101.60,1405.62 1104.72,1406.55 1107.81,1409.26"/>
    </edge>
    <edge id=":1018877622_8" function="internal">
        <lane id=":1018877622_8_0" index="0" disallow="tram rail_urban rail rail_electric rail_fast ship container cable_car subway aircraft wheelchair scooter drone" speed="3.65" length="4.67" shape="1095.32,1409.13 1096.71,1408.77 1097.58,1409.00 1097.91,1409.83 1097.71,1411.26"/>
    </edge>
    <edge id=":10238285069_0" function="internal">
        <lane id=":10238285069_0_0" index="0" allow="pedestrian bicycle" speed="4.22" length="2.24" width="0.75" shape="1351.74,895.45 1351.32,894.93 1351.00,894.50 1350.63,894.24 1350.05,894.22"/>
    </edge>
    <edge id=":10238285069_1" function="internal">
        <lane id=":10238285069_1_0" index="0" allow="pedestrian bicycle" speed="4.78" length="3.71" width="0.75" shape="1351.74,895.45 1351.11,894.62 1350.78,893.78 1350.74,892.93 1351.00,892.06"/>
    </edge>
    <edge id=":10238285069_2" function="internal">
        <lane id=":10238285069_2_0" index="0" allow="pedestrian bicycle" speed="1.77" length="1.10" width="0.75" shape="1351.74,895.45 1351.68,895.12 1351.75,894.92 1351.95,894.86 1352.28,894.94"/>
    </edge>
    <edge id=":10238285069_3" function="internal">
        <lane id=":10238285069_3_0" index="0" allow="pedestrian bicycle" speed="4.19" length="2.81" width="0.75" shape="1351.68,892.38 1351.49,893.02 1351.53,893.66 1351.79,894.30 1352.28,894.94"/>
    </edge>
    <edge id=":10238285069_4" function="internal">
        <lane id=":10238285069_4_0" index="0" allow="pedestrian bicycle" speed="4.67" length="2.58" width="0.75" shape="1351.68,892.38 1351.39,893.02 1351.07,893.57 1350.66,893.99 1350.05,894.22"/>
    </edge>
    <edge id=":10238285069_5" function="internal">
        <lane id=":10238285069_5_0" index="0" allow="pedestrian bicycle" speed="1.77" length="1.10" width="0.75" shape="1351.68,892.38 1351.39,892.56 1351.18,892.56 1351.05,892.40 1351.00,892.06"/>
    </edge>
    <edge id=":10238285069_6" function="internal">
        <lane id=":10238285069_6_0" index="0" allow="pedestrian bicycle" speed="4.06" length="1.92" width="0.75" shape="1349.91,893.49 1350.40,893.31 1350.65,893.02 1350.80,892.60 1351.00,892.06"/>
    </edge>
    <edge id=":10238285069_7" function="internal">
        <lane id=":10238285069_7_0" index="0" allow="pedestrian bicycle" speed="4.76" length="2.90" width="0.75" shape="1349.91,893.49 1350.60,893.53 1351.21,893.87 1351.76,894.38 1352.28,894.94"/>
    </edge>
    <edge id=":10238285069_8" function="internal">
        <lane id=":10238285069_8_0" index="0" allow="pedestrian bicycle" speed="1.77" length="1.10" width="0.75" shape="1349.91,893.49 1350.22,893.62 1350.35,893.79 1350.29,893.99 1350.05,894.22"/>
    </edge>
    <edge id=":10238783297_0" function="internal">
        <lane id=":10238783297_0_0" index="0" allow="pedestrian bicycle" speed="5.56" length="0.30" width="2.00" shape="1172.19,1035.89 1171.94,1035.71"/>
    </edge>
    <edge id=":10238783297_1" function="internal">
        <lane id=":10238783297_1_0" index="0" allow="pedestrian bicycle" speed="5.56" length="0.28" width="2.00" shape="1173.13,1034.10 1173.35,1034.27"/>
    </edge>
    <edge id=":10287788248_0" function="internal">
        <lane id=":10287788248_0_0" index="0" allow="pedestrian bicycle" speed="5.56" length="5.01" width="2.00" shape="823.55,1389.22 821.36,1393.73"/>
    </edge>
    <edge id=":10287788248_1" function="internal">
        <lane id=":10287788248_1_0" index="0" allow="pedestrian bicycle" speed="2.89" length="2.92" width="2.00" shape="823.55,1389.22 822.77,1389.68 822.21,1389.69 821.87,1389.24 821.75,1388.35"/>
    </edge>
    <edge id=":10287788248_2" function="internal">
        <lane id=":10287788248_2_0" index="0" allow="pedestrian bicycle" speed="5.56" length="5.01" width="2.00" shape="819.56,1392.86 821.75,1388.35"/>
    </edge>
    <edge id=":10287788248_3" function="internal">
        <lane id=":10287788248_3_0" index="0" allow="pedestrian bicycle" speed="2.89" length="2.92" width="2.00" shape="819.56,1392.86 820.34,1392.40 820.89,1392.39 821.24,1392.84 821.36,1393.73"/>
    </edge>
    <edge id=":10287788250_0" function="internal">
        <lane id=":10287788250_0_0" index="0" allow="pedestrian bicycle" speed="5.56" length="5.00" width="2.00" shape="817.18,1402.76 815.35,1407.41"/>
    </edge>
    <edge id=":10287788250_1" function="internal">
        <lane id=":10287788250_1_0" index="0" allow="pedestrian bicycle" speed="2.89" length="2.92" width="2.00" shape="817.18,1402.76 816.44,1403.28 815.89,1403.33 815.51,1402.91 815.32,1402.03"/>
    </edge>
    <edge id=":10287788250_2" function="internal">
        <lane id=":10287788250_2_0" index="0" allow="pedestrian bicycle" speed="5.56" length="5.00" width="2.00" shape="813.49,1406.68 815.32,1402.03"/>
    </edge>
    <edge id=":10287788250_3" function="internal">
        <lane id=":10287788250_3_0" index="0" allow="pedestrian bicycle" speed="2.89" length="2.92" width="2.00" shape="813.49,1406.68 814.23,1406.16 814.79,1406.11 815.16,1406.53 815.35,1407.41"/>
    </edge>
    <edge id=":10289912680_0" function="internal">
        <lane id=":10289912680_0_0" index="0" allow="pedestrian bicycle" speed="4.39" length="3.30" width="2.00" shape="326.35,1277.89 325.79,1277.65 325.04,1277.97 324.23,1278.53 323.48,1279.02"/>
    </edge>
    <edge id=":10289912680_1" function="internal">
        <lane id=":10289912680_1_0" index="0" disallow="tram rail_urban rail rail_electric rail_fast ship container cable_car subway aircraft wheelchair scooter drone" speed="13.89" length="2.96" shape="326.35,1277.89 325.87,1277.16 325.57,1276.63 325.31,1276.09 324.96,1275.28"/>
    </edge>
    <edge id=":10289912680_2" function="internal">
        <lane id=":10289912680_2_0" index="0" allow="pedestrian bicycle" speed="4.72" length="4.55" width="2.00" shape="326.35,1277.89 325.97,1276.93 326.12,1276.01 326.80,1275.14 328.01,1274.32"/>
    </edge>
    <edge id=":10289912680_3" function="internal">
        <lane id=":10289912680_3_0" index="0" allow="pedestrian bicycle" speed="5.56" length="6.22" width="2.00" shape="328.96,1276.08 323.48,1279.02"/>
    </edge>
    <edge id=":10289912680_4" function="internal">
        <lane id=":10289912680_4_0" index="0" allow="pedestrian bicycle" speed="4.62" length="0.96" width="2.00" shape="328.96,1276.08 328.07,1276.43"/>
    </edge>
    <edge id=":10289912680_5" function="internal">
        <lane id=":10289912680_5_0" index="0" allow="pedestrian bicycle" speed="2.89" length="2.39" width="2.00" shape="328.96,1276.08 328.06,1275.99 327.61,1275.67 327.59,1275.11 327.76,1274.78"/>
    </edge>
    <edge id=":10289912680_9" function="internal">
        <lane id=":10289912680_9_0" index="0" allow="pedestrian bicycle" speed="4.62" length="3.76" width="2.00" shape="328.07,1276.43 327.60,1276.62 326.48,1276.67 325.60,1276.23 324.96,1275.28"/>
    </edge>
    <edge id=":10289912680_10" function="internal">
        <lane id=":10289912680_10_0" index="0" allow="pedestrian bicycle" speed="2.89" length="0.53" width="2.00" shape="327.76,1274.78 328.01,1274.32"/>
    </edge>
    <edge id=":10289912680_6" function="internal">
        <lane id=":10289912680_6_0" index="0" allow="pedestrian bicycle" speed="4.22" length="3.35" width="2.00" shape="322.54,1277.26 323.34,1276.88 324.23,1276.44 324.88,1275.91 324.96,1275.28"/>
    </edge>
    <edge id=":10289912680_7" function="internal">
        <lane id=":10289912680_7_0" index="0" allow="pedestrian bicycle" speed="5.56" length="6.22" width="2.00" shape="322.54,1277.26 328.01,1274.32"/>
    </edge>
    <edge id=":10289912680_8" function="internal">
        <lane id=":10289912680_8_0" index="0" allow="pedestrian bicycle" speed="2.89" length="2.39" width="2.00" shape="322.54,1277.26 323.44,1277.34 323.89,1277.67 323.91,1278.22 323.74,1278.55"/>
    </edge>
    <edge id=":10289912680_11" function="internal">
        <lane id=":10289912680_11_0" index="0" allow="pedestrian bicycle" speed="2.89" length="0.53" width="2.00" shape="323.74,1278.55 323.48,1279.02"/>
    </edge>
    <edge id=":10289912681_0" function="internal">
        <lane id=":10289912681_0_0" index="0" disallow="tram rail_urban rail rail_electric rail_fast ship container cable_car subway aircraft wheelchair scooter drone" speed="6.01" length="6.68" shape="331.98,1288.99 331.05,1288.30 329.72,1288.18 327.96,1288.61 325.80,1289.61"/>
    </edge>
    <edge id=":10289912681_1" function="internal">
        <lane id=":10289912681_1_0" index="0" disallow="tram rail_urban rail rail_electric rail_fast ship container cable_car subway aircraft wheelchair scooter drone" speed="13.89" length="12.28" shape="331.98,1288.99 329.96,1285.80 328.87,1283.26 327.96,1280.85 326.46,1278.06"/>
    </edge>
    <edge id=":10289912681_2" function="internal">
        <lane id=":10289912681_2_0" index="0" disallow="tram rail_urban rail rail_electric rail_fast ship container cable_car subway aircraft wheelchair scooter drone" speed="5.42" length="3.60" shape="334.54,1287.07 333.35,1285.15 332.97,1283.87"/>
    </edge>
    <edge id=":10289912681_10" function="internal">
        <lane id=":10289912681_10_0" index="0" disallow="tram rail_urban rail rail_electric rail_fast ship container cable_car subway aircraft wheelchair scooter drone" speed="5.42" length="2.93" shape="332.97,1283.87 332.88,1283.57 333.13,1282.32 334.11,1281.40"/>
    </edge>
    <edge id=":10289912681_3" function="internal">
        <lane id=":10289912681_3_0" index="0" disallow="tram rail_urban rail rail_electric rail_fast ship container cable_car subway aircraft wheelchair scooter drone" speed="13.89" length="11.27" shape="335.68,1284.19 325.80,1289.61"/>
    </edge>
    <edge id=":10289912681_4" function="internal">
        <lane id=":10289912681_4_0" index="0" disallow="tram rail_urban rail rail_electric rail_fast ship container cable_car subway aircraft wheelchair scooter drone" speed="7.59" length="12.03" shape="335.68,1284.19 333.68,1284.61 331.47,1283.73 329.06,1281.55 326.46,1278.06"/>
    </edge>
    <edge id=":10289912681_5" function="internal">
        <lane id=":10289912681_5_0" index="0" disallow="tram rail_urban rail rail_electric rail_fast ship container cable_car subway aircraft wheelchair scooter drone" speed="3.65" length="4.67" shape="335.68,1284.19 334.24,1284.08 333.50,1283.58 333.46,1282.69 334.11,1281.40"/>
    </edge>
    <edge id=":10289912681_6" function="internal">
        <lane id=":10289912681_6_0" index="0" disallow="tram rail_urban rail rail_electric rail_fast ship container cable_car subway aircraft wheelchair scooter drone" speed="5.95" length="7.87" shape="322.77,1283.97 325.10,1282.47 326.49,1280.99 326.94,1279.52 326.46,1278.06"/>
    </edge>
    <edge id=":10289912681_7" function="internal">
        <lane id=":10289912681_7_0" index="0" disallow="tram rail_urban rail rail_electric rail_fast ship container cable_car subway aircraft wheelchair scooter drone" speed="13.89" length="11.17" shape="322.77,1283.97 332.53,1278.61"/>
        <lane id=":10289912681_7_1" index="1" disallow="tram rail_urban rail rail_electric rail_fast ship container cable_car subway aircraft wheelchair scooter drone" speed="13.89" length="11.17" shape="324.29,1286.79 334.11,1281.40"/>
    </edge>
    <edge id=":10289912681_9" function="internal">
        <lane id=":10289912681_9_0" index="0" disallow="tram rail_urban rail rail_electric rail_fast ship container cable_car subway aircraft wheelchair scooter drone" speed="3.65" length="1.44" shape="324.29,1286.79 325.72,1286.92"/>
    </edge>
    <edge id=":10289912681_11" function="internal">
        <lane id=":10289912681_11_0" index="0" disallow="tram rail_urban rail rail_electric rail_fast ship container cable_car subway aircraft wheelchair scooter drone" speed="3.65" length="3.23" shape="325.72,1286.92 326.45,1287.44 326.48,1288.33 325.80,1289.61"/>
    </edge>
    <edge id=":10289912682_0" function="internal">
        <lane id=":10289912682_0_0" index="0" allow="bicycle" speed="4.52" length="4.08" width="2.00" shape="333.06,1291.17 332.22,1290.41 331.35,1290.14 330.47,1290.34 329.56,1291.02"/>
    </edge>
    <edge id=":10289912682_1" function="internal">
        <lane id=":10289912682_1_0" index="0" disallow="tram rail_urban rail rail_electric rail_fast ship container cable_car subway aircraft wheelchair scooter drone" speed="13.89" length="2.08" shape="333.52,1290.78 332.10,1289.15"/>
        <lane id=":10289912682_1_1" index="1" disallow="tram rail_urban rail rail_electric rail_fast ship container cable_car subway aircraft wheelchair scooter drone" speed="13.89" length="2.08" shape="335.97,1288.73 334.66,1287.23"/>
    </edge>
    <edge id=":10289912682_3" function="internal">
        <lane id=":10289912682_3_0" index="0" allow="bicycle" speed="5.56" length="7.76" width="2.00" shape="334.94,1285.42 329.56,1291.02"/>
    </edge>
    <edge id=":10289912682_4" function="internal">
        <lane id=":10289912682_4_0" index="0" allow="bicycle" speed="3.34" length="2.29" width="2.00" shape="334.94,1285.42 334.18,1287.59"/>
    </edge>
    <edge id=":10289912683_0" function="internal">
        <lane id=":10289912683_0_0" index="0" disallow="tram rail_urban rail rail_electric rail_fast ship container cable_car subway aircraft wheelchair scooter drone" speed="13.89" length="6.01" shape="339.78,1298.06 335.79,1293.49"/>
        <lane id=":10289912683_0_1" index="1" disallow="tram rail_urban rail rail_electric rail_fast ship container cable_car subway aircraft wheelchair scooter drone" speed="13.89" length="6.01" shape="342.15,1295.91 338.24,1291.43"/>
    </edge>
    <edge id=":10722312226_0" function="internal">
        <lane id=":10722312226_0_0" index="0" allow="pedestrian delivery bicycle" speed="5.02" length="5.02" shape="299.95,684.09 299.17,682.96 298.22,682.35 297.09,682.27 295.79,682.73"/>
    </edge>
    <edge id=":10722312226_1" function="internal">
        <lane id=":10722312226_1_0" index="0" allow="pedestrian delivery bicycle" speed="6.91" length="10.16" shape="299.95,684.09 299.07,681.43 299.23,679.13 300.43,677.17 302.66,675.57"/>
    </edge>
    <edge id=":10722312226_2" function="internal">
        <lane id=":10722312226_2_0" index="0" allow="pedestrian delivery bicycle" speed="3.65" length="4.67" shape="299.95,684.09 300.14,682.66 300.68,681.95 301.57,681.95 302.82,682.68"/>
    </edge>
    <edge id=":10722312226_3" function="internal">
        <lane id=":10722312226_3_0" index="0" allow="pedestrian delivery bicycle" speed="5.10" length="5.07" shape="304.13,678.41 303.03,679.20 302.44,680.18 302.37,681.34 302.82,682.68"/>
    </edge>
    <edge id=":10722312226_4" function="internal">
        <lane id=":10722312226_4_0" index="0" disallow="tram rail_urban rail rail_electric rail_fast ship container cable_car subway aircraft wheelchair scooter drone" speed="8.33" length="9.40" shape="304.13,678.41 295.79,682.73"/>
    </edge>
    <edge id=":10722312226_5" function="internal">
        <lane id=":10722312226_5_0" index="0" disallow="tram rail_urban rail rail_electric rail_fast ship container cable_car subway aircraft wheelchair scooter drone" speed="8.33" length="9.40" shape="294.32,679.88 302.66,675.57"/>
    </edge>
    <edge id=":10722312226_6" function="internal">
        <lane id=":10722312226_6_0" index="0" allow="pedestrian delivery bicycle" speed="6.85" length="3.28" shape="294.32,679.88 296.98,678.96 297.44,678.99"/>
    </edge>
    <edge id=":10722312226_7" function="internal">
        <lane id=":10722312226_7_0" index="0" allow="pedestrian delivery bicycle" speed="6.85" length="6.97" shape="297.44,678.99 299.28,679.11 301.23,680.35 302.82,682.68"/>
    </edge>
    <edge id=":10722312228_0" function="internal">
        <lane id=":10722312228_0_0" index="0" allow="pedestrian delivery bicycle" speed="5.56" length="0.51" shape="333.67,728.59 333.59,728.46 333.53,728.38 333.46,728.30 333.34,728.20"/>
    </edge>
    <edge id=":10722312228_1" function="internal">
        <lane id=":10722312228_1_0" index="0" allow="pedestrian delivery bicycle" speed="5.56" length="1.54" shape="335.43,725.77 335.77,726.07 335.99,726.30 336.17,726.55 336.41,726.94"/>
    </edge>
    <edge id=":10722312229_0" function="internal">
        <lane id=":10722312229_0_0" index="0" allow="pedestrian delivery bicycle" speed="3.65" length="4.67" shape="343.74,739.11 343.67,740.55 343.19,741.30 342.30,741.37 340.99,740.76"/>
    </edge>
    <edge id=":10876594387_0" function="internal">
        <lane id=":10876594387_0_0" index="0" allow="pedestrian delivery bicycle" speed="5.56" length="10.28" shape="325.38,721.36 317.58,714.66"/>
    </edge>
    <edge id=":10876594387_1" function="internal">
        <lane id=":10876594387_1_0" index="0" allow="pedestrian delivery bicycle" speed="5.56" length="13.18" shape="325.38,721.36 322.76,718.42 322.17,715.84 323.61,713.60 327.07,711.73"/>
    </edge>
    <edge id=":10876594387_2" function="internal">
        <lane id=":10876594387_2_0" index="0" allow="pedestrian delivery bicycle" speed="3.65" length="4.67" shape="325.38,721.36 324.99,719.97 325.21,719.11 326.03,718.76 327.46,718.94"/>
    </edge>
    <edge id=":10876594387_3" function="internal">
        <lane id=":10876594387_3_0" index="0" allow="pedestrian delivery bicycle" speed="4.69" length="5.77" shape="328.20,714.72 326.69,715.54 326.06,716.52 326.32,717.65 327.46,718.94"/>
    </edge>
    <edge id=":10876594387_4" function="internal">
        <lane id=":10876594387_4_0" index="0" allow="pedestrian delivery bicycle" speed="5.56" length="11.11" shape="328.20,714.72 324.79,715.76 321.89,716.09 319.48,715.73 317.58,714.66"/>
    </edge>
    <edge id=":10876594387_5" function="internal">
        <lane id=":10876594387_5_0" index="0" allow="pedestrian delivery bicycle" speed="3.65" length="4.67" shape="328.20,714.72 326.80,714.39 326.14,713.79 326.23,712.90 327.07,711.73"/>
    </edge>
    <edge id=":10876594387_6" function="internal">
        <lane id=":10876594387_6_0" index="0" allow="pedestrian delivery bicycle" speed="5.56" length="7.70" shape="319.66,712.24 320.82,712.80 322.44,712.91 324.52,712.55 327.07,711.73"/>
    </edge>