<configuration>
    <input>
        <net-file value="hack.net.xml"/>
        <route-files value="hack.routes.xml"/>
    </input>
    <time>
        <begin value="0"/>
        <end value="3600"/>
    </time>
</configuration>
